src/case data/busdat2000.csv
bus_id,type,pd,qd,gs,bs,area,vm,va,basekv,zone,vmax,vmin,lam_p,lam_q,mu_vmax,mu_vmin
1001,1,20.78,5.89,0,0,1,0.98393,-22.646,115,9,1.1,0.9,25.75,-3.48,0,0
1002,1,15.41,4.37,0,0,1,1.0229,-18.132,115,9,1.1,0.9,84.21,0.49,0,0
1003,1,0,0,0,0,1,1.0129,-17.012,115,9,1.1,0.9,-6.74,0.14,0,0
1004,2,0,0,0,0,1,1.0174,-18.849,230,9,1.1,0.9,-7.08,6.03,0,0
1005,1,0,0,0,0,1,1.0101,-16.099,115,9,1.1,0.9,-52.96,-29.63,0,0
1006,2,0,0,0,0,1,1.0037,-13.943,13.8,9,1.1,0.9,-50.44,0,0,0
1007,1,7.01,1.99,0,0.08,1,1.03,-18.502,115,9,1.1,0.9,73.76,0,0,0
1008,1,0,0,0,0,1,1.0242,-8.7508,115,9,1.1,0.9,-680.69,29.86,0,0
1009,2,0,0,0,0,1,1.0143,-5.4873,13.8,9,1.1,0.9,-680.32,29.76,0,0
1010,1,0,0,0,-2.19,1,1.03,-16.859,115,9,1.1,0.9,86.13,0,0,0
1011,2,0,0,0,0,1,1.0302,-15.111,22,9,1.1,0.9,86.02,0,0,0
1012,1,2.99,0.85,0,9.5,1,1.0168,-25.305,115,9,1.1,0.9,-344.59,36.1,0,0
1013,1,29.23,8.28,0,0,1,1.0096,-15.448,115,9,1.1,0.9,49.34,-0.98,0,0
1014,1,2.22,0.63,0,0,1,1.016,-11.967,115,9,1.1,0.9,71.89,-7.32,0,0
1015,1,7.51,2.13,0,0,1,1.032,-18.255,115,9,1.1,0.9,81.09,-0.15,0,0
1016,1,2.89,0.82,0,30,1,1.0189,-15.497,115,9,1.1,0.9,-1.91,-27.33,0,0
1017,1,18.34,5.2,0,0,1,0.99044,-21.412,115,9,1.1,0.9,26.56,-2.71,0,0
1018,1,0.07,0.02,0,0,1,0.99654,-20.156,115,9,1.1,0.9,29.91,-2.15,0,0
1019,1,61.78,17.5,0,142.98,1,1.0041,-22.237,115,9,1.1,0.9,21.25,-3.6,0,0
1020,1,0,0,0,76.73,1,1.0259,-15.253,115,9,1.1,0.9,-53.97,0,0,0
1021,2,0,0,0,0,1,1.0016,-8.6682,13.8,9,1.1,0.9,-52.36,0,0,0
1022,1,0,0,0,0,1,1.0157,-16.13,115,9,1.1,0.9,-6.07,0.19,0,0
1023,2,0,0,0,0,1,1.01,-7.2457,13.8,9,1.1,0.9,-5.92,0,0,0
1024,1,63.04,17.86,0,0,1,0.99717,-19.134,115,9,1.1,0.9,32.46,-0.99,0,0
1025,1,0,0,0,0,1,1.0211,-14.197,115,9,1.1,0.9,-52.26,-11.84,0,0
1026,2,0,0,0,0,1,1,-4.7073,13.8,9,1.1,0.9,-49.53,0,0,0
1027,1,101.21,28.68,0,75,1,1.014,-25.753,115,9,1.1,0.9,-5.64,-2.49,0,0
1028,1,10.01,2.84,0,0,1,1.019,-17.634,115,9,1.1,0.9,-4.89,0.5,0,0
1029,1,83.18,23.57,0,65.41,1,1.03,-24.955,115,9,1.1,0.9,-0.15,-0.61,0,0
1030,1,24.63,6.98,0,0,1,1.0183,-13.494,115,9,1.1,0.9,99.16,-10.05,0,0
1031,1,9.25,2.62,0,0,1,1.0192,-17.69,115,9,1.1,0.9,61.74,-0.03,0,0
1032,1,0,0,0,0,1,1.0065,-12.394,115,9,1.1,0.9,132.88,-43.51,0,0
1033,2,0,0,0,50,1,1.0259,-16.949,230,9,1.1,0.9,51.53,-22.14,0,0
1034,1,0,0,0,0,1,1.0065,-14.328,115,9,1.1,0.9,-27.54,-36.49,0,0
1035,2,0,0,0,0,1,1,-11.039,13.8,9,1.1,0.9,-23.36,0,0,0
1036,1,13.6,3.85,0,0,1,1.0006,-12.599,115,9,1.1,0.9,107.44,-21.86,0,0
1037,1,102.24,28.97,0,0,1,0.98137,-22.482,115,9,1.1,0.9,27.08,-3,0,0
1038,1,0,0,0,0,1,1.0201,-7.7595,115,9,1.1,0.9,110.79,-14.86,0,0
1039,2,0,0,0,0,1,1,-2.3899,22,9,1.1,0.9,112.08,0,0,0
1040,1,44.36,12.57,0,0,1,0.99584,-20.397,115,9,1.1,0.9,29.68,-1.71,0,0
1041,1,0,0,0,0,1,1.0049,-15.121,115,9,1.1,0.9,-1038.8,23.76,0,0
1042,2,0,0,0,0,1,1.0049,-15.121,13.8,9,1.1,0.9,-1038.8,23.76,0,0
1043,2,0,0,0,0,1,1,-11.884,13.8,9,1.1,0.9,-1037.9,0,0,0
1044,1,14.68,4.16,0,0,1,1.0152,-25.876,115,9,1.1,0.9,-141.55,-40.27,0,0
1045,1,98.56,27.93,0,0,1,0.98276,-24.352,115,9,1.1,0.9,18.05,-3.5,0,0
1046,1,11.08,3.14,0,12,1,1.0281,-22.494,115,9,1.1,0.9,-423.42,31.55,0,0
1047,1,0,0,0,0,1,1.0086,-13.372,115,9,1.1,0.9,47.24,-1.28,0,0
1048,2,0,0,0,0,1,1.0086,-13.372,18,9,1.1,0.9,47.24,-1.28,0,0
1049,2,0,0,0,0,1,1.0086,-13.372,18,9,1.1,0.9,47.24,-1.28,0,0
1050,2,0,0,0,0,1,1,-8.3175,18,9,1.1,0.9,47.17,0,0,0
1051,2,0,0,0,0,1,1,-6.8426,18,9,1.1,0.9,47.05,0,0,0
1052,2,0,0,0,0,1,1.001,-9.1684,18,9,1.1,0.9,47.13,0,0,0
1053,2,0,0,0,0,1,1.0257,-17.342,230,9,1.1,0.9,46.38,-0.32,0,0
1054,1,14.99,4.25,0,0,1,1.0125,-22.285,115,9,1.1,0.9,-18.58,0.24,0,0
1055,1,3.98,1.13,0,0,1,1.0056,-18.059,115,9,1.1,0.9,-8.07,-0.03,0,0
1056,1,0,0,0,56.13,1,1.03,-21.837,115,9,1.1,0.9,-20.84,0,0,0
1057,2,0,0,0,0,1,1.03,-21.837,18,9,1.1,0.9,-20.84,0,0,0
1058,1,13.46,3.81,0,0,1,1.0258,-11.36,115,9,1.1,0.9,-585.8,13.3,0,0
1059,2,0,0,0,0,1,1.0258,-11.36,22,9,1.1,0.9,-585.8,13.3,0,0
1060,2,0,0,0,0,1,1.0258,-11.36,22,9,1.1,0.9,-585.8,13.3,0,0
1061,1,0,0,0,0,1,1.0119,-17.239,115,9,1.1,0.9,-60.92,-23.13,0,0
1062,2,0,0,0,0,1,1.0119,-17.239,13.8,9,1.1,0.9,-60.92,-23.13,0,0
1063,2,0,0,0,0,1,1.0119,-17.239,13.8,9,1.1,0.9,-60.92,-23.13,0,0
1064,1,123.76,35.07,0,0,1,0.97684,-24.054,115,9,1.1,0.9,23.25,-3.54,0,0
1065,1,0,0,0,0,1,1.0078,-14.956,115,9,1.1,0.9,-2026.5,113.31,0,0
1066,2,0,0,0,0,1,1,-7.4407,13.8,9,1.1,0.9,-2024,0,0,0
1067,1,101.55,28.77,0,0,1,1.0018,-15.69,115,9,1.1,0.9,-45.37,-60.77,0,0
1068,1,59.4,16.83,0,0,1,0.98761,-16.455,115,9,1.1,0.9,37.47,-15.81,0,0
1069,1,0,0,0,0,1,1.0272,-8.877,115,9,1.1,0.9,-619.52,14.71,0,0
1070,2,0,0,0,0,1,1.04,-4.3825,13.8,9,1.1,0.9,-617.12,0,0,0
1071,1,91.46,25.91,0,0,1,0.99127,-21.394,115,9,1.1,0.9,27.69,-3.35,0,0
1072,2,0,0,0,0,1,1.01,-12.055,18,9,1.1,0.9,28.03,0,0,0
1073,2,0,0,0,0,1,1.01,-5.6615,18,9,1.1,0.9,28.34,0,0,0
1074,2,0,0,0,0,1,1.01,-7.7056,18,9,1.1,0.9,28.2,0,0,0
1075,2,0,0,0,0,1,1.01,-10.463,18,9,1.1,0.9,28.16,0,0,0
1076,2,0,0,0,0,1,0.99127,-21.394,18,9,1.1,0.9,27.69,-3.35,0,0
1077,2,0,0,0,0,1,0.99127,-21.394,18,9,1.1,0.9,27.69,-3.35,0,0
1078,2,0,0,0,0,1,1.01,-10.982,18,9,1.1,0.9,28.19,0,0,0
1079,2,0,0,0,0,1,1.0198,-38.334,500,9,1.1,0.9,38.02,-10.23,0,0
1080,2,0,0,0,0,1,1.01,-10.401,18,9,1.1,0.9,28.06,0,0,0
1081,2,0,0,0,79.77,1,1.03,-18.69,230,9,1.1,0.9,46.26,0,0,0
1082,2,0,0,0,0,1,1.0233,-6.0505,115,9,1.1,0.9,-589.26,7.34,0,0
1083,1,39.95,11.32,0,26.15,1,1.0227,-9.9813,115,9,1.1,0.9,102.17,-13.71,0,0
1084,2,0,0,0,0,1,1.0283,-16.471,115,9,1.1,0.9,-42.65,-7.5,0,0
1085,1,21.3,6.03,0,0,1,1.0116,-15.327,115,9,1.1,0.9,44.1,-0.93,0,0
1086,1,39.67,11.24,0,30,1,1.0187,-17.567,115,9,1.1,0.9,47,-1.18,0,0
1087,1,0.91,0.26,0,14.05,1,1.03,-16.23,115,9,1.1,0.9,-514.2,0,0,0
1088,2,0,0,0,0,1,1,-11.91,115,9,1.1,0.9,82.05,0,0,0
1089,1,40.6,11.5,0,0,1,0.98666,-21.244,115,9,1.1,0.9,-12.44,-0.27,0,0
1090,2,0,0,0,0,1,1.02,-16.064,115,9,1.1,0.9,34.44,0,0,0
1091,1,11.62,3.29,0,0,1,1.0327,-30.81,161,9,1.1,0.9,-23.26,-0.76,0,0
2001,1,48.36,13.7,0,0,2,1.0028,-59.602,161,11,1.1,0.9,141.96,14.24,0,0
2002,1,0,0,0,0,2,1.0128,-61.189,500,11,1.1,0.9,148.2,16.97,0,0
2003,1,0,0,0,0,2,1.0114,-63.443,161,11,1.1,0.9,155.92,19.83,0,0
2004,2,0,0,0,0,2,1.0128,-61.189,13.8,11,1.1,0.9,148.2,16.97,0,0
2005,2,0,0,0,0,2,1.0128,-61.189,13.8,11,1.1,0.9,148.2,16.97,0,0
2006,2,0,0,0,0,2,1.0128,-61.189,13.8,11,1.1,0.9,148.2,16.97,0,0
2007,1,9.54,2.7,0,0,2,1.0037,-59.373,161,11,1.1,0.9,144.56,16.59,0,0
2008,1,8.06,2.28,0,0,2,1.0196,-32.539,161,10,1.1,0.9,6.86,-1.09,0,0
2009,1,39.14,11.09,0,120,2,1.024,-44.929,161,11,1.1,0.9,19.71,0,0,0
2010,1,56.81,16.09,0,30.17,2,1.03,-36.203,161,10,1.1,0.9,-47.2,0,0,0
2011,1,0,0,0,0,2,1.0392,-31.78,500,10,1.1,0.9,24.36,-0.35,0,0
2012,1,0,0,0,0,2,1.0281,-29.554,161,10,1.1,0.9,21.8,-0.72,0,0
2013,2,0,0,0,0,2,1.0308,-29.442,18,10,1.1,0.9,24.37,-0.36,0,0
2014,1,25.43,7.2,0,0,2,1.0193,-33.128,161,10,1.1,0.9,-1.87,-0.83,0,0
2015,1,4.69,1.33,0,0,2,1.0119,-62.949,161,11,1.1,0.9,247.05,17.44,0,0
2016,1,69.27,19.63,0,0,2,1.011,-69.563,161,11,1.1,0.9,2322.9,545.82,0,0
2017,1,0,0,0,-200,2,1.0309,-31.944,500,10,1.1,0.9,21.48,0.19,0,0
2018,1,0,0,0,0,2,1.0285,-31.155,161,10,1.1,0.9,21.67,-0.1,0,0
2019,2,0,0,0,0,2,1.0309,-31.944,20,10,1.1,0.9,21.48,0.19,0,0
2020,1,47.97,13.59,0,0,2,0.99712,-44.577,161,11,1.1,0.9,25.69,4.26,0,0
2021,1,0,0,0,0,2,1.0148,-56.329,500,11,1.1,0.9,135.35,9.95,0,0
2022,1,11.56,3.28,0,0,2,1.011,-58.26,161,11,1.1,0.9,138.84,13.08,0,0
2023,2,0,0,0,0,2,1.02,-54.767,13.8,11,1.1,0.9,134.81,0,0,0
2024,2,0,0,0,0,2,1.02,-54.102,13.8,11,1.1,0.9,134.66,0,0,0
2025,1,39.62,11.23,0,0,2,0.99571,-43.815,161,11,1.1,0.9,17.84,1.53,0,0
2026,1,18.57,5.26,0,0,2,1.027,-30.761,161,10,1.1,0.9,23.86,-0.47,0,0
2027,1,3.55,1.01,0,0,2,1.0033,-60.032,161,11,1.1,0.9,143.72,14.98,0,0
2028,1,14.24,4.03,0,0,2,0.99737,-46.944,161,11,1.1,0.9,44.13,10.69,0,0
2029,1,3.2,0.91,0,0,2,1.0258,-32.522,161,10,1.1,0.9,-8.69,-0.56,0,0
2030,1,47.15,13.36,0,0,2,0.99,-63.652,161,11,1.1,0.9,163.8,24.62,0,0
2031,1,5.77,1.63,0,0,2,1.0275,-29.478,161,10,1.1,0.9,-81.89,7.24,0,0
2032,1,3.35,0.95,0,0,2,1.0057,-58.769,161,11,1.1,0.9,142.62,15.33,0,0
2033,1,13.57,3.85,0,0,2,0.99265,-65.16,161,11,1.1,0.9,172.61,26.28,0,0
2034,1,5.34,1.51,0,0,2,1.0088,-68.887,161,11,1.1,0.9,2456.8,590.25,0,0
2035,1,4.68,1.33,0,0,2,1.0225,-30.411,161,10,1.1,0.9,-98.51,10.26,0,0
2036,1,41.59,11.78,0,0,2,1.0011,-44.179,161,11,1.1,0.9,20.61,1.77,0,0
2037,1,3.5,0.99,0,0,2,1.0232,-63.29,161,11,1.1,0.9,275.41,12.43,0,0
2038,1,2.6,0.74,0,0,2,1.0084,-63.915,161,11,1.1,0.9,159.84,21.48,0,0
2039,1,5.56,1.58,0,0,2,0.99536,-60.324,161,11,1.1,0.9,168.95,23.3,0,0
2040,1,15.9,4.51,0,0,2,1.0085,-58.93,161,11,1.1,0.9,140.74,13.75,0,0
2041,1,0,0,0,0,2,1.029,-27.375,161,10,1.1,0.9,21.89,-0.54,0,0
2042,2,0,0,0,0,2,1.0204,-24.805,18,10,1.1,0.9,21.9,-2.89,0,0
2043,1,4.24,1.2,0,0,2,1.0096,-69.195,161,11,1.1,0.9,2400.3,573.93,0,0
2044,1,27.4,7.76,0,0,2,1.018,-65.017,161,11,1.1,0.9,261.03,18.83,0,0
2045,1,22.61,6.4,0,0,2,0.99657,-45.117,161,11,1.1,0.9,29.44,5.7,0,0
2046,1,22.13,6.27,0,0,2,1.0083,-68.498,161,11,1.1,0.9,2515.9,603.88,0,0
2047,1,14.96,4.24,0,0,2,1.0102,-64.342,161,11,1.1,0.9,1395.6,363.42,0,0
2048,1,6.42,1.82,0,0,2,1.0317,-31.522,161,10,1.1,0.9,-50.44,2.94,0,0
2049,1,11.57,3.28,0,0,2,1.0212,-40.668,161,10,1.1,0.9,-0.79,2.06,0,0
2050,1,3.66,1.04,0,0,2,0.9956,-62.849,161,11,1.1,0.9,156.16,20.53,0,0
2051,1,17.85,5.06,0,0,2,0.99329,-53.824,161,11,1.1,0.9,119.27,25.26,0,0
2052,1,24.84,7.04,0,0,2,1.0197,-31.659,161,10,1.1,0.9,14.13,-1.11,0,0
2053,1,29.13,8.25,0,0,2,0.99358,-59.004,161,11,1.1,0.9,109.28,18.74,0,0
2054,1,0,0,0,0,2,0.99924,-42.825,500,11,1.1,0.9,19.47,0.99,0,0
2055,1,49.62,14.06,0,0,2,0.99905,-43.653,161,11,1.1,0.9,20.75,1.98,0,0
2056,2,0,0,0,0,2,0.99924,-42.825,18,11,1.1,0.9,19.47,0.99,0,0
2057,2,0,0,0,0,2,0.99,-38.424,18,11,1.1,0.9,19.33,0,0,0
2058,1,0,0,0,0,2,1.0293,-26.947,161,10,1.1,0.9,22.11,-0.53,0,0
2059,2,0,0,0,0,2,1.0193,-23.606,13.8,10,1.1,0.9,22.09,-0.53,0,0
2060,1,3.8,1.08,0,0,2,0.99873,-61.567,161,11,1.1,0.9,151.97,19.29,0,0
2061,1,0,0,0,0,2,1.0242,-37.153,161,10,1.1,0.9,-16.07,0.88,0,0
2062,2,0,0,0,0,2,1.02,-34.856,18,10,1.1,0.9,-16.06,0,0,0
2063,1,65.62,18.59,0,40,2,1.0094,-67.861,161,11,1.1,0.9,2559,612.12,0,0
2064,1,10.05,2.85,0,0,2,1.0043,-59.897,161,11,1.1,0.9,145.05,16.18,0,0
2065,1,78.36,22.2,0,100,2,1.0266,-65.249,161,11,1.1,0.9,317.77,0,0,0
2066,1,7.11,2.02,0,0,2,1.0206,-27.5,161,10,1.1,0.9,-119.17,10.1,0,0
2067,1,53.97,15.29,0,0,2,0.99388,-43.737,161,11,1.1,0.9,13.71,1.09,0,0
2068,1,5.76,1.63,0,0,2,1,-41.705,161,11,1.1,0.9,-3.08,-0.22,0,0
2069,1,21.92,6.21,0,120,2,1.0257,-68.742,161,11,1.1,0.9,211.3,0,0,0
2070,1,0,0,0,0,2,1.002,-41.287,161,11,1.1,0.9,-9.28,-0.19,0,0
2071,2,0,0,0,0,2,1,-37.611,18,11,1.1,0.9,-9.22,0,0,0
2072,1,9.71,2.75,0,0,2,1.0193,-66.865,161,11,1.1,0.9,196.27,48.16,0,0
2073,1,0,0,0,0,2,1.0207,-24.995,161,10,1.1,0.9,-134.89,8.38,0,0
2074,1,0,0,0,0,2,1.0104,-23.143,115,10,1.1,0.9,-187.96,4.73,0,0
2075,1,0,0,0,0,2,1.0104,-23.143,115,10,1.1,0.9,-187.96,4.73,0,0
2076,2,0,0,0,0,2,1.0259,-24.097,24,10,1.1,0.9,-134.95,8.36,0,0
2077,1,0,0,0,0,2,1.0234,-60.876,161,11,1.1,0.9,244.47,11.61,0,0
2078,2,0,0,0,0,2,1.02,-57.562,13.8,11,1.1,0.9,242.7,0,0,0
2079,1,4.48,1.27,0,0,2,1.0315,-34.431,161,10,1.1,0.9,-48.53,1.36,0,0
2080,1,16.93,4.8,0,0,2,0.99888,-57.175,161,11,1.1,0.9,160.85,24.69,0,0
2081,1,4.46,1.26,0,0,2,1.0029,-64.718,161,11,1.1,0.9,166.99,24.34,0,0
2082,1,59.03,16.73,0,0,2,1.0055,-44.526,161,11,1.1,0.9,20.42,1.53,0,0
2083,2,0,0,0,0,2,1.02,-42.954,20,11,1.1,0.9,20.31,1.48,0,0
2084,2,0,0,0,0,2,1.0055,-44.526,20,11,1.1,0.9,20.42,1.53,0,0
2085,2,0,0,0,0,2,1.0055,-44.526,20,11,1.1,0.9,20.42,1.53,0,0
2086,1,2.19,0.62,0,0,2,0.99662,-59.136,161,11,1.1,0.9,165.92,23.98,0,0
2087,1,7.9,2.24,0,0,2,1.0235,-27.336,161,10,1.1,0.9,-109.69,9.05,0,0
2088,1,0,0,0,0,2,1.001,-41.405,161,11,1.1,0.9,-5.34,-0.24,0,0
2089,2,0,0,0,0,2,1,-37.804,24,11,1.1,0.9,-5.28,0,0,0
2090,1,2.42,0.69,0,0,2,1.0037,-60.652,161,11,1.1,0.9,146.66,16.35,0,0
2091,1,17.05,4.83,0,0,2,1.025,-33.797,161,10,1.1,0.9,-72.42,7.2,0,0
2092,1,24.11,6.83,0,0,2,1.0083,-66.176,161,11,1.1,0.9,2570,618.26,0,0
2093,1,0,0,0,0,2,1.0288,-30.313,161,10,1.1,0.9,21.74,-0.43,0,0
2094,2,0,0,0,0,2,1.0288,-30.313,13.8,10,1.1,0.9,21.74,-0.43,0,0
2095,2,0,0,0,0,2,1.0288,-30.313,13.8,10,1.1,0.9,21.74,-0.43,0,0
2096,1,0,0,0,-68.51,2,1.03,-27.645,500,10,1.1,0.9,9.97,0.64,0,0
2097,1,0,0,0,0,2,1.0287,-27.098,230,10,1.1,0.9,7.26,0.58,0,0
2098,1,0,0,0,0,2,1.0338,-30.224,161,10,1.1,0.9,-18.41,-1.66,0,0
2099,2,0,0,0,0,2,1.0295,-27.504,18,10,1.1,0.9,9.96,0,0,0
2100,2,0,0,0,0,2,1.0208,-25.039,18,10,1.1,0.9,9.93,0,0,0
2101,1,0,0,0,0,2,1.0124,-62.294,500,11,1.1,0.9,150.87,18.31,0,0
2102,1,0,0,0,0,2,1.0132,-63.738,161,11,1.1,0.9,176.22,27.2,0,0
2103,2,0,0,0,0,2,1.0124,-62.294,20,11,1.1,0.9,150.87,18.31,0,0
2104,2,0,0,0,0,2,1.0124,-62.294,20,11,1.1,0.9,150.87,18.31,0,0
2105,2,0,0,0,0,2,1.0124,-62.294,20,11,1.1,0.9,150.87,18.31,0,0
2106,1,14.4,4.08,0,0,2,0.9911,-65.805,161,11,1.1,0.9,178.08,28.53,0,0
2107,1,74.15,21.01,0,0,2,1.0078,-64.606,161,11,1.1,0.9,192.49,27.88,0,0
2108,1,2.14,0.61,0,0,2,1.0035,-43.408,161,10,1.1,0.9,-182.58,88.36,0,0
2109,1,33.81,9.58,0,0,2,1.0102,-46.06,161,11,1.1,0.9,29.53,4.94,0,0
...
